!-Generator IDFEditor 1.53
!-Option SortedOrder

!-NOTE: All comments with '!-' are ignored by the IDFEditor and are generated automatically.
!-      Use '!' comments if they need to be retained when using the IDFEditor.


!-   ===========  ALL OBJECTS IN CLASS: VERSION ===========

Version,
    23.1;                    !- Version Identifier


!-   ===========  ALL OBJECTS IN CLASS: SIMULATIONCONTROL ===========

SimulationControl,
    Yes,                     !- Do Zone Sizing Calculation
    Yes,                     !- Do System Sizing Calculation
    No,                      !- Do Plant Sizing Calculation
    No,                      !- Run Simulation for Sizing Periods
    Yes,                     !- Run Simulation for Weather File Run Periods
    No,                      !- Do HVAC Sizing Simulation for Sizing Periods
    1;                       !- Maximum Number of HVAC Sizing Simulation Passes


!-   ===========  ALL OBJECTS IN CLASS: BUILDING ===========

Building,
    RBC,                     !- Name
    0.0,                     !- North Axis {deg}
    City,                    !- Terrain
    0.04,                    !- Loads Convergence Tolerance Value {W}
    0.4,                     !- Temperature Convergence Tolerance Value {deltaC}
    FullInteriorAndExteriorWithReflections,  !- Solar Distribution
    25,                      !- Maximum Number of Warmup Days
    ;                        !- Minimum Number of Warmup Days


!-   ===========  ALL OBJECTS IN CLASS: SHADOWCALCULATION ===========

ShadowCalculation,
    PolygonClipping,         !- Shading Calculation Method
    Periodic,                !- Shading Calculation Update Frequency Method
    20,                      !- Shading Calculation Update Frequency
    15000,                   !- Maximum Figures in Shadow Overlap Calculations
    SutherlandHodgman,       !- Polygon Clipping Algorithm
    512,                     !- Pixel Counting Resolution
    SimpleSkyDiffuseModeling,!- Sky Diffuse Modeling Algorithm
    No,                      !- Output External Shading Calculation Results
    No,                      !- Disable Self-Shading Within Shading Zone Groups
    No;                      !- Disable Self-Shading From Shading Zone Groups to Other Zones


!-   ===========  ALL OBJECTS IN CLASS: SURFACECONVECTIONALGORITHM:INSIDE ===========

SurfaceConvectionAlgorithm:Inside,
    AdaptiveConvectionAlgorithm;  !- Algorithm


!-   ===========  ALL OBJECTS IN CLASS: SURFACECONVECTIONALGORITHM:OUTSIDE ===========

SurfaceConvectionAlgorithm:Outside,
    SimpleCombined;          !- Algorithm


!-   ===========  ALL OBJECTS IN CLASS: ZONEAIRCONTAMINANTBALANCE ===========

ZoneAirContaminantBalance,
    Yes,                     !- Carbon Dioxide Concentration
    Outdoor CO2,             !- Outdoor Carbon Dioxide Schedule Name
    No;                      !- Generic Contaminant Concentration


!-   ===========  ALL OBJECTS IN CLASS: ZONECAPACITANCEMULTIPLIER:RESEARCHSPECIAL ===========

ZoneCapacitanceMultiplier:ResearchSpecial,
    Furniture,               !- Name
    allZones,                !- Zone or ZoneList Name
    10,                      !- Temperature Capacity Multiplier
    1,                       !- Humidity Capacity Multiplier
    1,                       !- Carbon Dioxide Capacity Multiplier
    1;                       !- Generic Contaminant Capacity Multiplier


!-   ===========  ALL OBJECTS IN CLASS: TIMESTEP ===========

Timestep,
    4;                       !- Number of Timesteps per Hour


!-   ===========  ALL OBJECTS IN CLASS: SIZINGPERIOD:WEATHERFILEDAYS ===========

SizingPeriod:WeatherFileDays,
    Cooling,                 !- Name
    7,                       !- Begin Month
    1,                       !- Begin Day of Month
    7,                       !- End Month
    31,                      !- End Day of Month
    Monday,                  !- Day of Week for Start Day
    No,                      !- Use Weather File Daylight Saving Period
    Yes;                     !- Use Weather File Rain and Snow Indicators

SizingPeriod:WeatherFileDays,
    Heating,                 !- Name
    1,                       !- Begin Month
    1,                       !- Begin Day of Month
    1,                       !- End Month
    31,                      !- End Day of Month
    Tuesday,                 !- Day of Week for Start Day
    No,                      !- Use Weather File Daylight Saving Period
    Yes;                     !- Use Weather File Rain and Snow Indicators


!-   ===========  ALL OBJECTS IN CLASS: RUNPERIOD ===========

RunPeriod,
    RUNPERIOD1,              !- Name
    1,                       !- Begin Month
    1,                       !- Begin Day of Month
    2019,                    !- Begin Year
    12,                      !- End Month
    31,                      !- End Day of Month
    2019,                    !- End Year
    Tuesday,                 !- Day of Week for Start Day
    No,                      !- Use Weather File Holidays and Special Days
    No,                      !- Use Weather File Daylight Saving Period
    Yes,                     !- Apply Weekend Holiday Rule
    Yes,                     !- Use Weather File Rain Indicators
    Yes,                     !- Use Weather File Snow Indicators
    No;                      !- Treat Weather as Actual


!-   ===========  ALL OBJECTS IN CLASS: RUNPERIODCONTROL:SPECIALDAYS ===========

RunPeriodControl:SpecialDays,
    New Years Day,           !- Name
    January 1,               !- Start Date
    1,                       !- Duration {days}
    Holiday;                 !- Special Day Type

RunPeriodControl:SpecialDays,
    Family Day,              !- Name
    3rd Monday in February,  !- Start Date
    1,                       !- Duration {days}
    Holiday;                 !- Special Day Type

RunPeriodControl:SpecialDays,
    Good Friday,             !- Name
    3rd Friday in April,     !- Start Date
    1,                       !- Duration {days}
    Holiday;                 !- Special Day Type

RunPeriodControl:SpecialDays,
    Victoria Day,            !- Name
    3rd Monday in May,       !- Start Date
    1,                       !- Duration {days}
    Holiday;                 !- Special Day Type

RunPeriodControl:SpecialDays,
    Canada Day,              !- Name
    July 1,                  !- Start Date
    1,                       !- Duration {days}
    Holiday;                 !- Special Day Type

RunPeriodControl:SpecialDays,
    Civic Holiday,           !- Name
    1st Monday in August,    !- Start Date
    1,                       !- Duration {days}
    Holiday;                 !- Special Day Type

RunPeriodControl:SpecialDays,
    Labour Day,              !- Name
    1st Monday in September, !- Start Date
    1,                       !- Duration {days}
    Holiday;                 !- Special Day Type

RunPeriodControl:SpecialDays,
    National Day for Truth and Reconciliation,  !- Name
    September 30,            !- Start Date
    1,                       !- Duration {days}
    Holiday;                 !- Special Day Type

RunPeriodControl:SpecialDays,
    Thanksgiving,            !- Name
    2nd Monday in October,   !- Start Date
    1,                       !- Duration {days}
    Holiday;                 !- Special Day Type

RunPeriodControl:SpecialDays,
    Remembrance Day,         !- Name
    November 11,             !- Start Date
    1,                       !- Duration {days}
    Holiday;                 !- Special Day Type

RunPeriodControl:SpecialDays,
    Christmas,               !- Name
    December 25,             !- Start Date
    1,                       !- Duration {days}
    Holiday;                 !- Special Day Type

RunPeriodControl:SpecialDays,
    Boxing Day,              !- Name
    December 26,             !- Start Date
    1,                       !- Duration {days}
    Holiday;                 !- Special Day Type


!-   ===========  ALL OBJECTS IN CLASS: SITE:GROUNDREFLECTANCE ===========

Site:GroundReflectance,
    0.6,                     !- January Ground Reflectance {dimensionless}
    0.6,                     !- February Ground Reflectance {dimensionless}
    0.5,                     !- March Ground Reflectance {dimensionless}
    0.3,                     !- April Ground Reflectance {dimensionless}
    0.3,                     !- May Ground Reflectance {dimensionless}
    0.3,                     !- June Ground Reflectance {dimensionless}
    0.3,                     !- July Ground Reflectance {dimensionless}
    0.3,                     !- August Ground Reflectance {dimensionless}
    0.3,                     !- September Ground Reflectance {dimensionless}
    0.3,                     !- October Ground Reflectance {dimensionless}
    0.3,                     !- November Ground Reflectance {dimensionless}
    0.5;                     !- December Ground Reflectance {dimensionless}


!-   ===========  ALL OBJECTS IN CLASS: SCHEDULETYPELIMITS ===========

ScheduleTypeLimits,
    Any Number;              !- Name

ScheduleTypeLimits,
    Fraction,                !- Name
    0.0,                     !- Lower Limit Value
    1.0,                     !- Upper Limit Value
    CONTINUOUS;              !- Numeric Type

ScheduleTypeLimits,
    Temperature,             !- Name
    -60,                     !- Lower Limit Value
    200,                     !- Upper Limit Value
    CONTINUOUS;              !- Numeric Type

ScheduleTypeLimits,
    On/Off,                  !- Name
    0,                       !- Lower Limit Value
    1,                       !- Upper Limit Value
    DISCRETE;                !- Numeric Type

ScheduleTypeLimits,
    Control Type,            !- Name
    0,                       !- Lower Limit Value
    4,                       !- Upper Limit Value
    DISCRETE;                !- Numeric Type

ScheduleTypeLimits,
    Humidity,                !- Name
    10,                      !- Lower Limit Value
    90,                      !- Upper Limit Value
    CONTINUOUS;              !- Numeric Type

ScheduleTypeLimits,
    Number;                  !- Name


!-   ===========  ALL OBJECTS IN CLASS: SCHEDULE:COMPACT ===========

Schedule:Compact,
    NECB Office Lights Schedule,  !- Name
    Fraction,                !- Schedule Type Limits Name
    Through: 12/31,          !- Field 1
    For: Weekdays Saturday,  !- Field 2
    Until: 07:00,            !- Field 3
    0.05,                    !- Field 4
    Until: 08:00,            !- Field 5
    0.3,                     !- Field 6
    Until: 09:00,            !- Field 7
    0.8,                     !- Field 8
    Until: 17:00,            !- Field 9
    0.9,                     !- Field 10
    Until: 18:00,            !- Field 11
    0.8,                     !- Field 12
    Until: 19:00,            !- Field 13
    0.5,                     !- Field 14
    Until: 21:00,            !- Field 15
    0.3,                     !- Field 16
    Until: 23:00,            !- Field 17
    0.1,                     !- Field 18
    Until: 24:00,            !- Field 19
    0.05,                    !- Field 20
    For: SummerDesignDay,    !- Field 21
    Until: 24:00,            !- Field 22
    1.0,                     !- Field 23
    For: WinterDesignDay,    !- Field 24
    Until: 24:00,            !- Field 25
    0.0,                     !- Field 26
    For: Sunday Holidays AllOtherDays,  !- Field 27
    Until: 24:00,            !- Field 28
    0.05;                    !- Field 29

Schedule:Compact,
    NECB Office Equipment Schedule,  !- Name
    Fraction,                !- Schedule Type Limits Name
    Through: 12/31,          !- Field 1
    For: Weekdays Saturday,  !- Field 2
    Until: 07:00,            !- Field 3
    0.55547,                 !- Field 4
    Until: 08:00,            !- Field 5
    0.55547,                 !- Field 6
    Until: 09:00,            !- Field 7
    0.8,                     !- Field 8
    Until: 18:00,            !- Field 9
    0.9,                     !- Field 10
    Until: 19:00,            !- Field 11
    0.55547,                 !- Field 12
    Until: 21:00,            !- Field 13
    0.55547,                 !- Field 14
    Until: 24:00,            !- Field 15
    0.55547,                 !- Field 16
    For: SummerDesignDay,    !- Field 17
    Until: 24:00,            !- Field 18
    1.0,                     !- Field 19
    For: WinterDesignDay,    !- Field 20
    Until: 24:00,            !- Field 21
    0.0,                     !- Field 22
    For: Sunday Holidays AllOtherDays,  !- Field 23
    Until: 24:00,            !- Field 24
    0.2;                     !- Field 25

Schedule:Compact,
    NECB Office Occupancy Schedule,  !- Name
    Fraction,                !- Schedule Type Limits Name
    Through: 12/31,          !- Field 1
    For: Weekdays Saturday,  !- Field 2
    Until: 07:00,            !- Field 3
    0,                       !- Field 4
    Until: 08:00,            !- Field 5
    0.1,                     !- Field 6
    Until: 09:00,            !- Field 7
    0.7,                     !- Field 8
    Until: 12:00,            !- Field 9
    0.9,                     !- Field 10
    Until: 14:00,            !- Field 11
    0.5,                     !- Field 12
    Until: 17:00,            !- Field 13
    0.9,                     !- Field 14
    Until: 18:00,            !- Field 15
    0.7,                     !- Field 16
    Until: 19:00,            !- Field 17
    0.3,                     !- Field 18
    Until: 23:00,            !- Field 19
    0.1,                     !- Field 20
    Until: 24:00,            !- Field 21
    0,                       !- Field 22
    For: SummerDesignDay,    !- Field 23
    Until: 07:00,            !- Field 24
    0,                       !- Field 25
    Until: 23:00,            !- Field 26
    1.0,                     !- Field 27
    Until: 24:00,            !- Field 28
    0,                       !- Field 29
    For: WinterDesignDay,    !- Field 30
    Until: 24:00,            !- Field 31
    0.0,                     !- Field 32
    For: Sunday Holidays AllOtherDays,  !- Field 33
    Until: 24:00,            !- Field 34
    0;                       !- Field 35

Schedule:Compact,
    Infiltration Half On Schedule,  !- Name
    Fraction,                !- Schedule Type Limits Name
    Through: 12/31,          !- Field 1
    For: Weekdays SummerDesignDay,  !- Field 2
    Until: 06:00,            !- Field 3
    1.0,                     !- Field 4
    Until: 21:00,            !- Field 5
    1.0,                     !- Field 6
    Until: 24:00,            !- Field 7
    1.0,                     !- Field 8
    For: Saturday WinterDesignDay,  !- Field 9
    Until: 06:00,            !- Field 10
    1.0,                     !- Field 11
    Until: 21:00,            !- Field 12
    1.0,                     !- Field 13
    Until: 24:00,            !- Field 14
    1.0,                     !- Field 15
    For: Sunday Holidays AllOtherDays,  !- Field 16
    Until: 24:00,            !- Field 17
    1.0;                     !- Field 18

Schedule:Compact,
    Hours of Operation Schedule,  !- Name
    On/Off,                  !- Schedule Type Limits Name
    Through: 12/31,          !- Field 1
    For: Weekdays SummerDesignDay,  !- Field 2
    Until: 06:00,            !- Field 3
    0.0,                     !- Field 4
    Until: 21:00,            !- Field 5
    1.0,                     !- Field 6
    Until: 24:00,            !- Field 7
    0.0,                     !- Field 8
    For: Saturday WinterDesignDay,  !- Field 9
    Until: 06:00,            !- Field 10
    0.0,                     !- Field 11
    Until: 12:00,            !- Field 12
    1.0,                     !- Field 13
    Until: 24:00,            !- Field 14
    0.0,                     !- Field 15
    For: Sunday Holidays AllOtherDays,  !- Field 16
    Until: 24:00,            !- Field 17
    0.0;                     !- Field 18

Schedule:Compact,
    Always On,               !- Name
    Fraction,                !- Schedule Type Limits Name
    Through: 12/31,          !- Field 1
    For: AllDays,            !- Field 2
    Until: 24:00,            !- Field 3
    1.0;                     !- Field 4

Schedule:Compact,
    Always Off,              !- Name
    Fraction,                !- Schedule Type Limits Name
    Through: 12/31,          !- Field 1
    For: AllDays,            !- Field 2
    Until: 24:00,            !- Field 3
    0.0;                     !- Field 4

Schedule:Compact,
    Heating Setpoint Schedule,  !- Name
    Temperature,             !- Schedule Type Limits Name
    Through: 12/31,          !- Field 1
    For: Weekdays Saturday,  !- Field 2
    Until: 06:00,            !- Field 3
    18,                      !- Field 4
    Until: 07:00,            !- Field 5
    20,                      !- Field 6
    Until: 21:00,            !- Field 7
    22.0,                    !- Field 8
    Until: 24:00,            !- Field 9
    18,                      !- Field 10
    For SummerDesignDay,     !- Field 11
    Until: 24:00,            !- Field 12
    18.0,                    !- Field 13
    For: WinterDesignDay,    !- Field 14
    Until: 24:00,            !- Field 15
    22.0,                    !- Field 16
    For: Sunday Holidays AllOtherDays,  !- Field 17
    Until: 24:00,            !- Field 18
    18;                      !- Field 19

Schedule:Compact,
    Cooling Setpoint Schedule,  !- Name
    Temperature,             !- Schedule Type Limits Name
    Through: 12/31,          !- Field 1
    For: Weekdays Saturday,  !- Field 2
    Until: 06:00,            !- Field 3
    27,                      !- Field 4
    Until: 21:00,            !- Field 5
    24,                      !- Field 6
    Until: 24:00,            !- Field 7
    27,                      !- Field 8
    For SummerDesignDay,     !- Field 9
    Until: 24:00,            !- Field 10
    24.0,                    !- Field 11
    For WinterDesignDay,     !- Field 12
    Until: 24:00,            !- Field 13
    27,                      !- Field 14
    For: Sunday Holidays AllOtherDays,  !- Field 15
    Until: 24:00,            !- Field 16
    27;                      !- Field 17

Schedule:Compact,
    Office Activity Schedule,!- Name
    Any Number,              !- Schedule Type Limits Name
    Through: 12/31,          !- Field 1
    For: AllDays,            !- Field 2
    Until: 24:00,            !- Field 3
    120.;                    !- Field 4

Schedule:Compact,
    Office Work Eff. Schedule,  !- Name
    Fraction,                !- Schedule Type Limits Name
    Through: 12/31,          !- Field 1
    For: AllDays,            !- Field 2
    Until: 24:00,            !- Field 3
    0.0;                     !- Field 4

Schedule:Compact,
    Office Clothing Schedule,!- Name
    Any Number,              !- Schedule Type Limits Name
    Through: 04/30,          !- Field 1
    For: AllDays,            !- Field 2
    Until: 24:00,            !- Field 3
    1.0,                     !- Field 4
    Through: 09/30,          !- Field 5
    For: AllDays,            !- Field 6
    Until: 24:00,            !- Field 7
    0.8,                     !- Field 8
    Through: 12/31,          !- Field 9
    For: AllDays,            !- Field 10
    Until: 24:00,            !- Field 11
    1.0;                     !- Field 12


!-   ===========  ALL OBJECTS IN CLASS: SCHEDULE:CONSTANT ===========

Schedule:Constant,
    Outdoor CO2,             !- Name
    Any Number,              !- Schedule Type Limits Name
    400;                     !- Hourly Value

Schedule:Constant,
    heatAvail,               !- Name
    Any Number,              !- Schedule Type Limits Name
    1;                       !- Hourly Value

Schedule:Constant,
    coolAvail,               !- Name
    Any Number,              !- Schedule Type Limits Name
    1;                       !- Hourly Value

Schedule:Constant,
    dhwTemp,                 !- Name
    Any Number,              !- Schedule Type Limits Name
    55;                      !- Hourly Value

Schedule:Constant,
    tSetHtg,                 !- Name
    Any Number,              !- Schedule Type Limits Name
    15;                      !- Hourly Value

Schedule:Constant,
    tSetClg,                 !- Name
    Any Number,              !- Schedule Type Limits Name
    30;                      !- Hourly Value


!-   ===========  ALL OBJECTS IN CLASS: MATERIAL ===========

Material,
    F08 Metal surface,       !- Name
    Smooth,                  !- Roughness
    0.0008,                  !- Thickness {m}
    45.28,                   !- Conductivity {W/m-K}
    7824,                    !- Density {kg/m3}
    500;                     !- Specific Heat {J/kg-K}

Material,
    I01 25mm insulation board,  !- Name
    MediumRough,             !- Roughness
    0.0254,                  !- Thickness {m}
    0.03,                    !- Conductivity {W/m-K}
    43,                      !- Density {kg/m3}
    1210;                    !- Specific Heat {J/kg-K}

Material,
    I02 50mm insulation board,  !- Name
    MediumRough,             !- Roughness
    0.0508,                  !- Thickness {m}
    0.03,                    !- Conductivity {W/m-K}
    43,                      !- Density {kg/m3}
    1210;                    !- Specific Heat {J/kg-K}

Material,
    G01a 19mm gypsum board,  !- Name
    MediumSmooth,            !- Roughness
    0.019,                   !- Thickness {m}
    0.16,                    !- Conductivity {W/m-K}
    800,                     !- Density {kg/m3}
    1090;                    !- Specific Heat {J/kg-K}

Material,
    M11 100mm lightweight concrete,  !- Name
    MediumRough,             !- Roughness
    0.1016,                  !- Thickness {m}
    0.53,                    !- Conductivity {W/m-K}
    1280,                    !- Density {kg/m3}
    840;                     !- Specific Heat {J/kg-K}

Material,
    F16 Acoustic tile,       !- Name
    MediumSmooth,            !- Roughness
    0.0191,                  !- Thickness {m}
    0.06,                    !- Conductivity {W/m-K}
    368,                     !- Density {kg/m3}
    590;                     !- Specific Heat {J/kg-K}

Material,
    M01 100mm brick,         !- Name
    MediumRough,             !- Roughness
    0.1016,                  !- Thickness {m}
    0.89,                    !- Conductivity {W/m-K}
    1920,                    !- Density {kg/m3}
    790;                     !- Specific Heat {J/kg-K}

Material,
    M15 200mm heavyweight concrete,  !- Name
    MediumRough,             !- Roughness
    0.2032,                  !- Thickness {m}
    1.95,                    !- Conductivity {W/m-K}
    2240,                    !- Density {kg/m3}
    900;                     !- Specific Heat {J/kg-K}

Material,
    M05 200mm concrete block,!- Name
    MediumRough,             !- Roughness
    0.2032,                  !- Thickness {m}
    1.11,                    !- Conductivity {W/m-K}
    2240,                    !- Density {kg/m3}
    920;                     !- Specific Heat {J/kg-K}

Material,
    G05 25mm wood,           !- Name
    MediumSmooth,            !- Roughness
    0.0254,                  !- Thickness {m}
    0.15,                    !- Conductivity {W/m-K}
    608,                     !- Density {kg/m3}
    1630;                    !- Specific Heat {J/kg-K}

Material,
    Floor insulation,        !- Name
    MediumRough,             !- Roughness
    0.057,                   !- Thickness {m}
    0.03,                    !- Conductivity {W/m-K}
    43,                      !- Density {kg/m3}
    1210;                    !- Specific Heat {J/kg-K}

Material,
    Wall insulation,         !- Name
    MediumRough,             !- Roughness
    0.046,                   !- Thickness {m}
    0.03,                    !- Conductivity {W/m-K}
    43,                      !- Density {kg/m3}
    1210;                    !- Specific Heat {J/kg-K}

Material,
    Roof insulation,         !- Name
    MediumRough,             !- Roughness
    0.04,                    !- Thickness {m}
    0.03,                    !- Conductivity {W/m-K}
    43,                      !- Density {kg/m3}
    1210;                    !- Specific Heat {J/kg-K}


!-   ===========  ALL OBJECTS IN CLASS: MATERIAL:AIRGAP ===========

Material:AirGap,
    F04 Wall air space resistance,  !- Name
    0.15;                    !- Thermal Resistance {m2-K/W}

Material:AirGap,
    F05 Ceiling air space resistance,  !- Name
    0.18;                    !- Thermal Resistance {m2-K/W}


!-   ===========  ALL OBJECTS IN CLASS: WINDOWMATERIAL:SIMPLEGLAZINGSYSTEM ===========

WindowMaterial:SimpleGlazingSystem,
    Exterior Window,         !- Name
    2.7308,                  !- U-Factor {W/m2-K}
    0.6,                     !- Solar Heat Gain Coefficient
    0.656;                   !- Visible Transmittance


!-   ===========  ALL OBJECTS IN CLASS: CONSTRUCTION ===========

Construction,
    Exterior Floor,          !- Name
    I02 50mm insulation board,  !- Outside Layer
    M15 200mm heavyweight concrete;  !- Layer 2

Construction,
    Exterior Wall,           !- Name
    M01 100mm brick,         !- Outside Layer
    Wall insulation,         !- Layer 2
    M15 200mm heavyweight concrete,  !- Layer 3
    F04 Wall air space resistance,  !- Layer 4
    G01a 19mm gypsum board;  !- Layer 5

Construction,
    Interior Wall,           !- Name
    G01a 19mm gypsum board,  !- Outside Layer
    F04 Wall air space resistance,  !- Layer 2
    G01a 19mm gypsum board;  !- Layer 3

Construction,
    Exterior Roof,           !- Name
    Roof insulation,         !- Outside Layer
    M11 100mm lightweight concrete,  !- Layer 2
    F05 Ceiling air space resistance,  !- Layer 3
    F16 Acoustic tile;       !- Layer 4

Construction,
    Exterior Window,         !- Name
    Exterior Window;         !- Outside Layer

Construction,
    Exterior Door,           !- Name
    F08 Metal surface,       !- Outside Layer
    I01 25mm insulation board;  !- Layer 2

Construction,
    Exterior Footing,        !- Name
    M15 200mm heavyweight concrete;  !- Outside Layer


!-   ===========  ALL OBJECTS IN CLASS: GLOBALGEOMETRYRULES ===========

GlobalGeometryRules,
    UpperLeftCorner,         !- Starting Vertex Position
    Counterclockwise,        !- Vertex Entry Direction
    Relative;                !- Coordinate System


!-   ===========  ALL OBJECTS IN CLASS: ZONE ===========

Zone,
    Office,                  !- Name
    0.0,                     !- Direction of Relative North {deg}
    0.0,                     !- X Origin {m}
    0.0,                     !- Y Origin {m}
    0.0,                     !- Z Origin {m}
    ,                        !- Type
    1,                       !- Multiplier
    ,                        !- Ceiling Height {m}
    ,                        !- Volume {m3}
    211.5;                   !- Floor Area {m2}

Zone,
    Lobby,                   !- Name
    0.0,                     !- Direction of Relative North {deg}
    19.159911,               !- X Origin {m}
    8.863402,                !- Y Origin {m}
    0.0,                     !- Z Origin {m}
    ,                        !- Type
    1,                       !- Multiplier
    ,                        !- Ceiling Height {m}
    ,                        !- Volume {m3}
    165.75;                  !- Floor Area {m2}

Zone,
    Electrical,              !- Name
    0.0,                     !- Direction of Relative North {deg}
    26.677886,               !- X Origin {m}
    24.06465,                !- Y Origin {m}
    0.0,                     !- Z Origin {m}
    ,                        !- Type
    1,                       !- Multiplier
    ,                        !- Ceiling Height {m}
    ,                        !- Volume {m3}
    81.0;                    !- Floor Area {m2}


!-   ===========  ALL OBJECTS IN CLASS: ZONELIST ===========

ZoneList,
    allZones,                !- Name
    Office,                  !- Zone 1 Name
    Lobby,                   !- Zone 2 Name
    Electrical;              !- Zone 3 Name


!-   ===========  ALL OBJECTS IN CLASS: BUILDINGSURFACE:DETAILED ===========

BuildingSurface:Detailed,
    OfficeFloor,             !- Name
    Floor,                   !- Surface Type
    Exterior Floor,          !- Construction Name
    Office,                  !- Zone Name
    ,                        !- Space Name
    Foundation,              !- Outside Boundary Condition
    Foundation Office,       !- Outside Boundary Condition Object
    NoSun,                   !- Sun Exposure
    NoWind,                  !- Wind Exposure
    0.0,                     !- View Factor to Ground
    4,                       !- Number of Vertices
    9.000000000000,          !- Vertex 1 X-coordinate {m}
    23.500000000000,         !- Vertex 1 Y-coordinate {m}
    0.000000000000,          !- Vertex 1 Z-coordinate {m}
    9.000000000000,          !- Vertex 2 X-coordinate {m}
    0.000000000000,          !- Vertex 2 Y-coordinate {m}
    0.000000000000,          !- Vertex 2 Z-coordinate {m}
    0.000000000000,          !- Vertex 3 X-coordinate {m}
    0.000000000000,          !- Vertex 3 Y-coordinate {m}
    0.000000000000,          !- Vertex 3 Z-coordinate {m}
    0.000000000000,          !- Vertex 4 X-coordinate {m}
    23.500000000000,         !- Vertex 4 Y-coordinate {m}
    0.000000000000;          !- Vertex 4 Z-coordinate {m}

BuildingSurface:Detailed,
    OfficeWestWall,          !- Name
    Wall,                    !- Surface Type
    Exterior Wall,           !- Construction Name
    Office,                  !- Zone Name
    ,                        !- Space Name
    Outdoors,                !- Outside Boundary Condition
    ,                        !- Outside Boundary Condition Object
    SunExposed,              !- Sun Exposure
    WindExposed,             !- Wind Exposure